MILP_For_Worst_Case_Guarantees/Test_Cases/case118_DCOPF.m
function mpc = case118_DCOPF
%CASE118_DCOPF

%% MATPOWER Case Format : Version 2
mpc.version = '2';

%%-----  Power Flow Data  -----%%
%% system MVA base
mpc.baseMVA = 100;

%% bus data
%	bus_i	type	Pd	Qd	Gs	Bs	area	Vm	Va	baseKV	zone	Vmax	Vmin
mpc.bus = [
	1	1	51	27	0	0	1	1	0	138	1	1.06	0.94;
	2	1	20	9	0	0	1	1	0	138	1	1.06	0.94;
	3	1	39	10	0	0	1	1	0	138	1	1.06	0.94;
	4	1	39	12	0	0	1	1	0	138	1	1.06	0.94;
	5	1	0	0	0	-40	1	1	0	138	1	1.06	0.94;
	6	1	52	22	0	0	1	1	0	138	1	1.06	0.94;
	7	1	19	2	0	0	1	1	0	138	1	1.06	0.94;
	8	1	28	0	0	0	1	1	0	345	1	1.06	0.94;
	9	1	0	0	0	0	1	1	0	345	1	1.06	0.94;
	10	3	0	0	0	0	1	1	0	345	1	1.06	0.94;
	11	1	70	23	0	0	1	1	0	138	1	1.06	0.94;
	12	2	47	10	0	0	1	1	0	138	1	1.06	0.94;
	13	1	34	16	0	0	1	1	0	138	1	1.06	0.94;
	14	1	14	1	0	0	1	1	0	138	1	1.06	0.94;
	15	1	90	30	0	0	1	1	0	138	1	1.06	0.94;
	16	1	25	10	0	0	1	1	0	138	1	1.06	0.94;
	17	1	11	3	0	0	1	1	0	138	1	1.06	0.94;
	18	1	60	34	0	0	1	1	0	138	1	1.06	0.94;
	19	1	45	25	0	0	1	1	0	138	1	1.06	0.94;
	20	1	18	3	0	0	1	1	0	138	1	1.06	0.94;
	21	1	14	8	0	0	1	1	0	138	1	1.06	0.94;
	22	1	10	5	0	0	1	1	0	138	1	1.06	0.94;
	23	1	7	3	0	0	1	1	0	138	1	1.06	0.94;
	24	1	13	0	0	0	1	1	0	138	1	1.06	0.94;
	25	2	0	0	0	0	1	1	0	138	1	1.06	0.94;
	26	2	0	0	0	0	1	1	0	345	1	1.06	0.94;
	27	1	71	13	0	0	1	1	0	138	1	1.06	0.94;
	28	1	17	7	0	0	1	1	0	138	1	1.06	0.94;
	29	1	24	4	0	0	1	1	0	138	1	1.06	0.94;
	30	1	0	0	0	0	1	1	0	345	1	1.06	0.94;
	31	2	43	27	0	0	1	1	0	138	1	1.06	0.94;
	32	1	59	23	0	0	1	1	0	138	1	1.06	0.94;
	33	1	23	9	0	0	1	1	0	138	1	1.06	0.94;
	34	1	59	26	0	14	1	1	0	138	1	1.06	0.94;
	35	1	33	9	0	0	1	1	0	138	1	1.06	0.94;
	36	1	31	17	0	0	1	1	0	138	1	1.06	0.94;
	37	1	0	0	0	-25	1	1	0	138	1	1.06	0.94;
	38	1	0	0	0	0	1	1	0	345	1	1.06	0.94;
	39	1	27	11	0	0	1	1	0	138	1	1.06	0.94;
	40	1	66	23	0	0	1	1	0	138	1	1.06	0.94;
	41	1	37	10	0	0	1	1	0	138	1	1.06	0.94;
	42	1	96	23	0	0	1	1	0	138	1	1.06	0.94;
	43	1	18	7	0	0	1	1	0	138	1	1.06	0.94;
	44	1	16	8	0	10	1	1	0	138	1	1.06	0.94;
	45	1	53	22	0	10	1	1	0	138	1	1.06	0.94;
	46	2	28	10	0	10	1	1	0	138	1	1.06	0.94;
	47	1	34	0	0	0	1	1	0	138	1	1.06	0.94;
	48	1	20	11	0	15	1	1	0	138	1	1.06	0.94;
	49	2	87	30	0	0	1	1	0	138	1	1.06	0.94;
	50	1	17	4	0	0	1	1	0	138	1	1.06	0.94;
	51	1	17	8	0	0	1	1	0	138	1	1.06	0.94;
	52	1	18	5	0	0	1	1	0	138	1	1.06	0.94;
	53	1	23	11	0	0	1	1	0	138	1	1.06	0.94;
	54	2	113	32	0	0	1	1	0	138	1	1.06	0.94;
	55	1	63	22	0	0	1	1	0	138	1	1.06	0.94;
	56	1	84	18	0	0	1	1	0	138	1	1.06	0.94;
	57	1	12	3	0	0	1	1	0	138	1	1.06	0.94;
	58	1	12	3	0	0	1	1	0	138	1	1.06	0.94;
	59	2	277	113	0	0	1	1	0	138	1	1.06	0.94;
	60	1	78	3	0	0	1	1	0	138	1	1.06	0.94;
	61	2	0	0	0	0	1	1	0	138	1	1.06	0.94;
	62	1	77	14	0	0	1	1	0	138	1	1.06	0.94;
	63	1	0	0	0	0	1	1	0	345	1	1.06	0.94;
	64	1	0	0	0	0	1	1	0	345	1	1.06	0.94;
	65	2	0	0	0	0	1	1	0	345	1	1.06	0.94;
	66	2	39	18	0	0	1	1	0	138	1	1.06	0.94;
	67	1	28	7	0	0	1	1	0	138	1	1.06	0.94;
	68	1	0	0	0	0	1	1	0	345	1	1.06	0.94;
	69	2	0	0	0	0	1	1	0	138	1	1.06	0.94;
	70	1	66	20	0	0	1	1	0	138	1	1.06	0.94;
	71	1	0	0	0	0	1	1	0	138	1	1.06	0.94;
	72	1	12	0	0	0	1	1	0	138	1	1.06	0.94;
	73	1	6	0	0	0	1	1	0	138	1	1.06	0.94;
	74	1	68	27	0	12	1	1	0	138	1	1.06	0.94;
	75	1	47	11	0	0	1	1	0	138	1	1.06	0.94;
	76	1	68	36	0	0	1	1	0	138	1	1.06	0.94;
	77	1	61	28	0	0	1	1	0	138	1	1.06	0.94;
	78	1	71	26	0	0	1	1	0	138	1	1.06	0.94;
	79	1	39	32	0	20	1	1	0	138	1	1.06	0.94;
	80	2	130	26	0	0	1	1	0	138	1	1.06	0.94;
	81	1	0	0	0	0	1	1	0	345	1	1.06	0.94;
	82	1	54	27	0	20	1	1	0	138	1	1.06	0.94;
	83	1	20	10	0	10	1	1	0	138	1	1.06	0.94;
	84	1	11	7	0	0	1	1	0	138	1	1.06	0.94;
	85	1	24	15	0	0	1	1	0	138	1	1.06	0.94;
	86	1	21	10	0	0	1	1	0	138	1	1.06	0.94;
	87	2	0	0	0	0	1	1	0	161	1	1.06	0.94;
	88	1	48	10	0	0	1	1	0	138	1	1.06	0.94;
	89	2	0	0	0	0	1	1	0	138	1	1.06	0.94;
	90	1	163	42	0	0	1	1	0	138	1	1.06	0.94;
	91	1	10	0	0	0	1	1	0	138	1	1.06	0.94;
	92	1	65	10	0	0	1	1	0	138	1	1.06	0.94;
	93	1	12	7	0	0	1	1	0	138	1	1.06	0.94;
	94	1	30	16	0	0	1	1	0	138	1	1.06	0.94;
	95	1	42	31	0	0	1	1	0	138	1	1.06	0.94;
	96	1	38	15	0	0	1	1	0	138	1	1.06	0.94;
	97	1	15	9	0	0	1	1	0	138	1	1.06	0.94;
	98	1	34	8	0	0	1	1	0	138	1	1.06	0.94;
	99	1	42	0	0	0	1	1	0	138	1	1.06	0.94;
	100	2	37	18	0	0	1	1	0	138	1	1.06	0.94;
	101	1	22	15	0	0	1	1	0	138	1	1.06	0.94;
	102	1	5	3	0	0	1	1	0	138	1	1.06	0.94;
	103	2	23	16	0	0	1	1	0	138	1	1.06	0.94;
	104	1	38	25	0	0	1	1	0	138	1	1.06	0.94;
	105	1	31	26	0	20	1	1	0	138	1	1.06	0.94;
	106	1	43	16	0	0	1	1	0	138	1	1.06	0.94;
	107	1	50	12	0	6	1	1	0	138	1	1.06	0.94;
	108	1	2	1	0	0	1	1	0	138	1	1.06	0.94;
	109	1	8	3	0	0	1	1	0	138	1	1.06	0.94;
	110	1	39	30	0	6	1	1	0	138	1	1.06	0.94;
	111	2	0	0	0	0	1	1	0	138	1	1.06	0.94;
	112	1	68	13	0	0	1	1	0	138	1	1.06	0.94;
	113	1	6	0	0	0	1	1	0	138	1	1.06	0.94;
	114	1	8	3	0	0	1	1	0	138	1	1.06	0.94;
	115	1	22	7	0	0	1	1	0	138	1	1.06	0.94;
	116	1	184	0	0	0	1	1	0	138	1	1.06	0.94;
	117	1	20	8	0	0	1	1	0	138	1	1.06	0.94;
	118	1	33	15	0	0	1	1	0	138	1	1.06	0.94;
];

%% generator data
%	bus	Pg	Qg	Qmax	Qmin	Vg	mBase	status	Pmax	Pmin	Pc1	Pc2	Qc1min	Qc1max	Qc2min	Qc2max	ramp_agc	ramp_10	ramp_30	ramp_q	apf
mpc.gen = [
	10	252.5	26.5	200	-147	1	100	1	505	0	0	0	0	0	0	0	0	0	0	0	0;
	12	42.5	4	43	-35	1	100	1	85	0	0	0	0	0	0	0	0	0	0	0	0;
	25	110.5	32	111	-47	1	100	1	221	0	0	0	0	0	0	0	0	0	0	0	0;
	26	242.5	0	243	-243	1	100	1	485	0	0	0	0	0	0	0	0	0	0	0	0;
	31	8.5	0	9	-9	1	100	1	17	0	0	0	0	0	0	0	0	0	0	0	0;
	46	10	0	10	-10	1	100	1	20	0	0	0	0	0	0	0	0	0	0	0	0;
	49	111.5	13.5	112	-85	1	100	1	223	0	0	0	0	0	0	0	0	0	0	0	0;
	54	26.5	0	27	-27	1	100	1	53	0	0	0	0	0	0	0	0	0	0	0	0;
	59	154	47	154	-60	1	100	1	308	0	0	0	0	0	0	0	0	0	0	0	0;
	61	97.5	0	98	-98	1	100	1	195	0	0	0	0	0	0	0	0	0	0	0	0;
	65	220.5	66.5	200	-67	1	100	1	441	0	0	0	0	0	0	0	0	0	0	0	0;
	66	392	66.5	200	-67	1	100	1	784	0	0	0	0	0	0	0	0	0	0	0	0;
	69	591	0	300	-300	1	100	1	1182	0	0	0	0	0	0	0	0	0	0	0	0;
	80	254.5	45	255	-165	1	100	1	509	0	0	0	0	0	0	0	0	0	0	0	0;
	87	5	0	5	-5	1	100	1	10	0	0	0	0	0	0	0	0	0	0	0	0;
	89	318.5	45	300	-210	1	100	1	637	0	0	0	0	0	0	0	0	0	0	0	0;
	100	326.5	52.5	155	-50	1	100	1	653	0	0	0	0	0	0	0	0	0	0	0	0;
	103	54	12.5	40	-15	1	100	1	108	0	0	0	0	0	0	0	0	0	0	0	0;
	111	39.5	0	40	-40	1	100	1	79	0	0	0	0	0	0	0	0	0	0	0	0;
];

%% branch data
%	fbus	tbus	r	x	b	rateA	rateB	rateC	ratio	angle	status	angmin	angmax
mpc.branch = [
	1	2	0.0303	0.0999	0.0254	151	151	151	0	0	1	-360	360;
	1	3	0.0129	0.0424	0.01082	151	151	151	0	0	1	-360	360;
	4	5	0.00176	0.00798	0.0021	176	176	176	0	0	1	-360	360;
	3	5	0.0241	0.108	0.0284	175	175	175	0	0	1	-360	360;
	5	6	0.0119	0.054	0.01426	176	176	176	0	0	1	-360	360;
	6	7	0.00459	0.0208	0.0055	176	176	176	0	0	1	-360	360;
	8	9	0.00244	0.0305	1.162	711	711	711	0	0	1	-360	360;
	8	5	0	0.0267	0	1099	1099	1099	0.985	0	1	-360	360;
	9	10	0.00258	0.0322	1.23	710	710	710	0	0	1	-360	360;
	4	11	0.0209	0.0688	0.01748	151	151	151	0	0	1	-360	360;
	5	11	0.0203	0.0682	0.01738	152	152	152	0	0	1	-360	360;
	11	12	0.00595	0.0196	0.00502	151	151	151	0	0	1	-360	360;
	2	12	0.0187	0.0616	0.01572	151	151	151	0	0	1	-360	360;
	3	12	0.0484	0.16	0.0406	151	151	151	0	0	1	-360	360;
	7	12	0.00862	0.034	0.00874	164	164	164	0	0	1	-360	360;
	11	13	0.02225	0.0731	0.01876	151	151	151	0	0	1	-360	360;
	12	14	0.0215	0.0707	0.01816	151	151	151	0	0	1	-360	360;
	13	15	0.0744	0.2444	0.06268	115	115	115	0	0	1	-360	360;
	14	15	0.0595	0.195	0.0502	144	144	144	0	0	1	-360	360;
	12	16	0.0212	0.0834	0.0214	164	164	164	0	0	1	-360	360;
	15	17	0.0132	0.0437	0.0444	151	151	151	0	0	1	-360	360;
	16	17	0.0454	0.1801	0.0466	158	158	158	0	0	1	-360	360;
	17	18	0.0123	0.0505	0.01298	167	167	167	0	0	1	-360	360;
	18	19	0.01119	0.0493	0.01142	173	173	173	0	0	1	-360	360;
	19	20	0.0252	0.117	0.0298	178	178	178	0	0	1	-360	360;
	15	19	0.012	0.0394	0.0101	151	151	151	0	0	1	-360	360;
	20	21	0.0183	0.0849	0.0216	177	177	177	0	0	1	-360	360;
	21	22	0.0209	0.097	0.0246	178	178	178	0	0	1	-360	360;
	22	23	0.0342	0.159	0.0404	178	178	178	0	0	1	-360	360;
	23	24	0.0135	0.0492	0.0498	158	158	158	0	0	1	-360	360;
	23	25	0.0156	0.08	0.0864	186	186	186	0	0	1	-360	360;
	26	25	0	0.0382	0	768	768	768	0.96	0	1	-360	360;
	25	27	0.0318	0.163	0.1764	177	177	177	0	0	1	-360	360;
	27	28	0.01913	0.0855	0.0216	174	174	174	0	0	1	-360	360;
	28	29	0.0237	0.0943	0.0238	165	165	165	0	0	1	-360	360;
	30	17	0	0.0388	0	756	756	756	0.96	0	1	-360	360;
	8	30	0.00431	0.0504	0.514	580	580	580	0	0	1	-360	360;
	26	30	0.00799	0.086	0.908	340	340	340	0	0	1	-360	360;
	17	31	0.0474	0.1563	0.0399	151	151	151	0	0	1	-360	360;
	29	31	0.0108	0.0331	0.0083	146	146	146	0	0	1	-360	360;
	23	32	0.0317	0.1153	0.1173	158	158	158	0	0	1	-360	360;
	31	32	0.0298	0.0985	0.0251	151	151	151	0	0	1	-360	360;
	27	32	0.0229	0.0755	0.01926	151	151	151	0	0	1	-360	360;
	15	33	0.038	0.1244	0.03194	150	150	150	0	0	1	-360	360;
	19	34	0.0752	0.247	0.0632	114	114	114	0	0	1	-360	360;
	35	36	0.00224	0.0102	0.00268	176	176	176	0	0	1	-360	360;
	35	37	0.011	0.0497	0.01318	175	175	175	0	0	1	-360	360;
	33	37	0.0415	0.142	0.0366	154	154	154	0	0	1	-360	360;
	34	36	0.00871	0.0268	0.00568	146	146	146	0	0	1	-360	360;
	34	37	0.00256	0.0094	0.00984	159	159	159	0	0	1	-360	360;
	38	37	0	0.0375	0	783	783	783	0.935	0	1	-360	360;
	37	39	0.0321	0.106	0.027	151	151	151	0	0	1	-360	360;
	37	40	0.0593	0.168	0.042	140	140	140	0	0	1	-360	360;
	30	38	0.00464	0.054	0.422	542	542	542	0	0	1	-360	360;
	39	40	0.0184	0.0605	0.01552	151	151	151	0	0	1	-360	360;
	40	41	0.0145	0.0487	0.01222	152	152	152	0	0	1	-360	360;
	40	42	0.0555	0.183	0.0466	151	151	151	0	0	1	-360	360;
	41	42	0.041	0.135	0.0344	151	151	151	0	0	1	-360	360;
	43	44	0.0608	0.2454	0.06068	117	117	117	0	0	1	-360	360;
	34	43	0.0413	0.1681	0.04226	167	167	167	0	0	1	-360	360;
	44	45	0.0224	0.0901	0.0224	166	166	166	0	0	1	-360	360;
	45	46	0.04	0.1356	0.0332	153	153	153	0	0	1	-360	360;
	46	47	0.038	0.127	0.0316	152	152	152	0	0	1	-360	360;
	46	48	0.0601	0.189	0.0472	148	148	148	0	0	1	-360	360;
	47	49	0.0191	0.0625	0.01604	150	150	150	0	0	1	-360	360;
	42	49	0.0715	0.323	0.086	89	89	89	0	0	1	-360	360;
	42	49	0.0715	0.323	0.086	89	89	89	0	0	1	-360	360;
	45	49	0.0684	0.186	0.0444	138	138	138	0	0	1	-360	360;
	48	49	0.0179	0.0505	0.01258	140	140	140	0	0	1	-360	360;
	49	50	0.0267	0.0752	0.01874	140	140	140	0	0	1	-360	360;
	49	51	0.0486	0.137	0.0342	140	140	140	0	0	1	-360	360;
	51	52	0.0203	0.0588	0.01396	142	142	142	0	0	1	-360	360;
	52	53	0.0405	0.1635	0.04058	166	166	166	0	0	1	-360	360;
	53	54	0.0263	0.122	0.031	177	177	177	0	0	1	-360	360;
	49	54	0.073	0.289	0.0738	99	99	99	0	0	1	-360	360;
	49	54	0.0869	0.291	0.073	97	97	97	0	0	1	-360	360;
	54	55	0.0169	0.0707	0.0202	169	169	169	0	0	1	-360	360;
	54	56	0.00275	0.00955	0.00732	155	155	155	0	0	1	-360	360;
	55	56	0.00488	0.0151	0.00374	146	146	146	0	0	1	-360	360;
	56	57	0.0343	0.0966	0.0242	140	140	140	0	0	1	-360	360;
	50	57	0.0474	0.134	0.0332	140	140	140	0	0	1	-360	360;
	56	58	0.0343	0.0966	0.0242	140	140	140	0	0	1	-360	360;
	51	58	0.0255	0.0719	0.01788	140	140	140	0	0	1	-360	360;
	54	59	0.0503	0.2293	0.0598	125	125	125	0	0	1	-360	360;
	56	59	0.0825	0.251	0.0569	112	112	112	0	0	1	-360	360;
	56	59	0.0803	0.239	0.0536	117	117	117	0	0	1	-360	360;
	55	59	0.04739	0.2158	0.05646	133	133	133	0	0	1	-360	360;
	59	60	0.0317	0.145	0.0376	176	176	176	0	0	1	-360	360;
	59	61	0.0328	0.15	0.0388	176	176	176	0	0	1	-360	360;
	60	61	0.00264	0.0135	0.01456	186	186	186	0	0	1	-360	360;
	60	62	0.0123	0.0561	0.01468	176	176	176	0	0	1	-360	360;
	61	62	0.00824	0.0376	0.0098	176	176	176	0	0	1	-360	360;
	63	59	0	0.0386	0	760	760	760	0.96	0	1	-360	360;
	63	64	0.00172	0.02	0.216	687	687	687	0	0	1	-360	360;
	64	61	0	0.0268	0	1095	1095	1095	0.985	0	1	-360	360;
	38	65	0.00901	0.0986	1.046	297	297	297	0	0	1	-360	360;
	64	65	0.00269	0.0302	0.38	675	675	675	0	0	1	-360	360;
	49	66	0.018	0.0919	0.0248	186	186	186	0	0	1	-360	360;
	49	66	0.018	0.0919	0.0248	186	186	186	0	0	1	-360	360;
	62	66	0.0482	0.218	0.0578	132	132	132	0	0	1	-360	360;
	62	67	0.0258	0.117	0.031	176	176	176	0	0	1	-360	360;
	65	66	0	0.037	0	793	793	793	0.935	0	1	-360	360;
	66	67	0.0224	0.1015	0.02682	176	176	176	0	0	1	-360	360;
	65	68	0.00138	0.016	0.638	686	686	686	0	0	1	-360	360;
	47	69	0.0844	0.2778	0.07092	102	102	102	0	0	1	-360	360;
	49	69	0.0985	0.324	0.0828	87	87	87	0	0	1	-360	360;
	68	69	0	0.037	0	793	793	793	0.935	0	1	-360	360;
	69	70	0.03	0.127	0.122	170	170	170	0	0	1	-360	360;
	24	70	0.00221	0.4115	0.10198	72	72	72	0	0	1	-360	360;
	70	71	0.00882	0.0355	0.00878	166	166	166	0	0	1	-360	360;
	24	72	0.0488	0.196	0.0488	146	146	146	0	0	1	-360	360;
	71	72	0.0446	0.18	0.04444	159	159	159	0	0	1	-360	360;
	71	73	0.00866	0.0454	0.01178	188	188	188	0	0	1	-360	360;
	70	74	0.0401	0.1323	0.03368	151	151	151	0	0	1	-360	360;
	70	75	0.0428	0.141	0.036	151	151	151	0	0	1	-360	360;
	69	75	0.0405	0.122	0.124	145	145	145	0	0	1	-360	360;
	74	75	0.0123	0.0406	0.01034	151	151	151	0	0	1	-360	360;
	76	77	0.0444	0.148	0.0368	152	152	152	0	0	1	-360	360;
	69	77	0.0309	0.101	0.1038	150	150	150	0	0	1	-360	360;
	75	77	0.0601	0.1999	0.04978	141	141	141	0	0	1	-360	360;
	77	78	0.00376	0.0124	0.01264	151	151	151	0	0	1	-360	360;
	78	79	0.00546	0.0244	0.00648	174	174	174	0	0	1	-360	360;
	77	80	0.017	0.0485	0.0472	141	141	141	0	0	1	-360	360;
	77	80	0.0294	0.105	0.0228	157	157	157	0	0	1	-360	360;
	79	80	0.0156	0.0704	0.0187	175	175	175	0	0	1	-360	360;
	68	81	0.00175	0.0202	0.808	684	684	684	0	0	1	-360	360;
	81	80	0	0.037	0	793	793	793	0.935	0	1	-360	360;
	77	82	0.0298	0.0853	0.08174	141	141	141	0	0	1	-360	360;
	82	83	0.0112	0.03665	0.03796	150	150	150	0	0	1	-360	360;
	83	84	0.0625	0.132	0.0258	122	122	122	0	0	1	-360	360;
	83	85	0.043	0.148	0.0348	154	154	154	0	0	1	-360	360;
	84	85	0.0302	0.0641	0.01234	122	122	122	0	0	1	-360	360;
	85	86	0.035	0.123	0.0276	156	156	156	0	0	1	-360	360;
	86	87	0.02828	0.2074	0.0445	141	141	141	1	0	1	-360	360;
	85	88	0.02	0.102	0.0276	186	186	186	0	0	1	-360	360;
	85	89	0.0239	0.173	0.047	168	168	168	0	0	1	-360	360;
	88	89	0.0139	0.0712	0.01934	186	186	186	0	0	1	-360	360;
	89	90	0.0518	0.188	0.0528	151	151	151	0	0	1	-360	360;
	89	90	0.0238	0.0997	0.106	169	169	169	0	0	1	-360	360;
	90	91	0.0254	0.0836	0.0214	151	151	151	0	0	1	-360	360;
	89	92	0.0099	0.0505	0.0548	186	186	186	0	0	1	-360	360;
	89	92	0.0393	0.1581	0.0414	166	166	166	0	0	1	-360	360;
	91	92	0.0387	0.1272	0.03268	151	151	151	0	0	1	-360	360;
	92	93	0.0258	0.0848	0.0218	151	151	151	0	0	1	-360	360;
	92	94	0.0481	0.158	0.0406	151	151	151	0	0	1	-360	360;
	93	94	0.0223	0.0732	0.01876	151	151	151	0	0	1	-360	360;
	94	95	0.0132	0.0434	0.0111	151	151	151	0	0	1	-360	360;
	80	96	0.0356	0.182	0.0494	159	159	159	0	0	1	-360	360;
	82	96	0.0162	0.053	0.0544	150	150	150	0	0	1	-360	360;
	94	96	0.0269	0.0869	0.023	149	149	149	0	0	1	-360	360;
	80	97	0.0183	0.0934	0.0254	186	186	186	0	0	1	-360	360;
	80	98	0.0238	0.108	0.0286	176	176	176	0	0	1	-360	360;
	80	99	0.0454	0.206	0.0546	140	140	140	0	0	1	-360	360;
	92	100	0.0648	0.295	0.0472	98	98	98	0	0	1	-360	360;
	94	100	0.0178	0.058	0.0604	150	150	150	0	0	1	-360	360;
	95	96	0.0171	0.0547	0.01474	149	149	149	0	0	1	-360	360;
	96	97	0.0173	0.0885	0.024	186	186	186	0	0	1	-360	360;
	98	100	0.0397	0.179	0.0476	160	160	160	0	0	1	-360	360;
	99	100	0.018	0.0813	0.0216	175	175	175	0	0	1	-360	360;
	100	101	0.0277	0.1262	0.0328	176	176	176	0	0	1	-360	360;
	92	102	0.0123	0.0559	0.01464	176	176	176	0	0	1	-360	360;
	101	102	0.0246	0.112	0.0294	176	176	176	0	0	1	-360	360;
	100	103	0.016	0.0525	0.0536	151	151	151	0	0	1	-360	360;
	100	104	0.0451	0.204	0.0541	141	141	141	0	0	1	-360	360;
	103	104	0.0466	0.1584	0.0407	153	153	153	0	0	1	-360	360;
	103	105	0.0535	0.1625	0.0408	145	145	145	0	0	1	-360	360;
	100	106	0.0605	0.229	0.062	124	124	124	0	0	1	-360	360;
	104	105	0.00994	0.0378	0.00986	161	161	161	0	0	1	-360	360;
	105	106	0.014	0.0547	0.01434	164	164	164	0	0	1	-360	360;
	105	107	0.053	0.183	0.0472	154	154	154	0	0	1	-360	360;
	105	108	0.0261	0.0703	0.01844	137	137	137	0	0	1	-360	360;
	106	107	0.053	0.183	0.0472	154	154	154	0	0	1	-360	360;
	108	109	0.0105	0.0288	0.0076	138	138	138	0	0	1	-360	360;
	103	110	0.03906	0.1813	0.0461	159	159	159	0	0	1	-360	360;
	109	110	0.0278	0.0762	0.0202	138	138	138	0	0	1	-360	360;
	110	111	0.022	0.0755	0.02	154	154	154	0	0	1	-360	360;
	110	112	0.0247	0.064	0.062	135	135	135	0	0	1	-360	360;
	17	113	0.00913	0.0301	0.00768	151	151	151	0	0	1	-360	360;
	32	113	0.0615	0.203	0.0518	139	139	139	0	0	1	-360	360;
	32	114	0.0135	0.0612	0.01628	176	176	176	0	0	1	-360	360;
	27	115	0.0164	0.0741	0.01972	175	175	175	0	0	1	-360	360;
	114	115	0.0023	0.0104	0.00276	175	175	175	0	0	1	-360	360;
	68	116	0.00034	0.00405	0.164	7218	7218	7218	1	0	1	-360	360;
	12	117	0.0329	0.14	0.0358	170	170	170	0	0	1	-360	360;
	75	118	0.0145	0.0481	0.01198	151	151	151	0	0	1	-360	360;
	76	118	0.0164	0.0544	0.01356	151	151	151	0	0	1	-360	360;
];

%%-----  OPF Data  -----%%
%% generator cost data
%	1	startup	shutdown	n	x1	y1	...	xn	yn
%	2	startup	shutdown	n	c(n-1)	...	c0
mpc.gencost = [
	2	0	0	3	0	24.98342	0;
	2	0	0	3	0	124.581564	0;
	2	0	0	3	0	28.948321	0;
	2	0	0	3	0	22.22098	0;
	2	0	0	3	0	25.993982	0;
	2	0	0	3	0	24.202306	0;
	2	0	0	3	0	16.673942	0;
	2	0	0	3	0	27.277343	0;
	2	0	0	3	0	24.861868	0;
	2	0	0	3	0	16.056042	0;
	2	0	0	3	0	34.781778	0;
	2	0	0	3	0	32.668781	0;
	2	0	0	3	0	25.758442	0;
	2	0	0	3	0	24.600772	0;
	2	0	0	3	0	34.072633	0;
	2	0	0	3	0	24.605102	0;
	2	0	0	3	0	12.61217	0;
	2	0	0	3	0	28.649471	0;
	2	0	0	3	0	35.043401	0;
];
